CHEMBL273030
     RDKit          3D

  9  8  0  0  0  0  0  0  0  0999 V2000
    0.9056    0.1975    0.0609 C   0  0  0  0  0  0  0  0  0  0  0  0
   -0.4605   -0.4774    0.0612 C   0  0  0  0  0  0  0  0  0  0  0  0
   -1.3393    0.2002   -0.7949 O   0  0  0  0  0  0  0  0  0  0  0  0
    0.8171    1.2385    0.4376 H   0  0  0  0  0  0  0  0  0  0  0  0
    1.6009   -0.3647    0.7194 H   0  0  0  0  0  0  0  0  0  0  0  0
    1.3204    0.2158   -0.9692 H   0  0  0  0  0  0  0  0  0  0  0  0
   -0.8692   -0.5083    1.0967 H   0  0  0  0  0  0  0  0  0  0  0  0
   -0.3489   -1.5228   -0.2961 H   0  0  0  0  0  0  0  0  0  0  0  0
   -1.6260    1.0211   -0.3156 H   0  0  0  0  0  0  0  0  0  0  0  0
  1  2  1  0
  2  3  1  0
  1  4  1  0
  1  5  1  0
  1  6  1  0
  2  7  1  0
  2  8  1  0
  3  9  1  0
M  END
$$$$
CHEMBL272808
     RDKit          3D

 22 21  0  0  0  0  0  0  0  0999 V2000
   -1.2849   -2.3272   -0.0311 C   0  0  0  0  0  0  0  0  0  0  0  0
   -1.2978   -0.8023   -0.0821 C   0  0  0  0  0  0  0  0  0  0  0  0
    0.0736   -0.2841   -0.2888 N   0  0  0  0  0  0  0  0  0  0  0  0
    0.0965    0.9011   -1.1822 C   0  0  0  0  0  0  0  0  0  0  0  0
   -0.5794    2.1470   -0.5925 C   0  0  0  0  0  0  0  0  0  0  0  0
    0.7805   -0.0820    0.9980 C   0  0  0  0  0  0  0  0  0  0  0  0
    2.2861    0.0868    0.7984 C   0  0  0  0  0  0  0  0  0  0  0  0
   -2.3252   -2.7057    0.0571 H   0  0  0  0  0  0  0  0  0  0  0  0
   -0.7052   -2.6895    0.8426 H   0  0  0  0  0  0  0  0  0  0  0  0
   -0.8345   -2.7343   -0.9612 H   0  0  0  0  0  0  0  0  0  0  0  0
   -1.7478   -0.3995    0.8536 H   0  0  0  0  0  0  0  0  0  0  0  0
   -1.9717   -0.5124   -0.9194 H   0  0  0  0  0  0  0  0  0  0  0  0
   -0.4038    0.6464   -2.1424 H   0  0  0  0  0  0  0  0  0  0  0  0
    1.1415    1.1501   -1.4600 H   0  0  0  0  0  0  0  0  0  0  0  0
   -0.6804    2.9167   -1.3863 H   0  0  0  0  0  0  0  0  0  0  0  0
    0.0371    2.5836    0.2198 H   0  0  0  0  0  0  0  0  0  0  0  0
   -1.5929    1.9120   -0.2074 H   0  0  0  0  0  0  0  0  0  0  0  0
    0.6436   -0.9751    1.6452 H   0  0  0  0  0  0  0  0  0  0  0  0
    0.3692    0.7821    1.5612 H   0  0  0  0  0  0  0  0  0  0  0  0
    2.6757   -0.7046    0.1235 H   0  0  0  0  0  0  0  0  0  0  0  0
    2.8020    0.0049    1.7785 H   0  0  0  0  0  0  0  0  0  0  0  0
    2.5177    1.0861    0.3754 H   0  0  0  0  0  0  0  0  0  0  0  0
  1  2  1  0
  2  3  1  0
  3  4  1  0
  4  5  1  0
  3  6  1  0
  6  7  1  0
  1  8  1  0
  1  9  1  0
  1 10  1  0
  2 11  1  0
  2 12  1  0
  4 13  1  0
  4 14  1  0
  5 15  1  0
  5 16  1  0
  5 17  1  0
  6 18  1  0
  6 19  1  0
  7 20  1  0
  7 21  1  0
  7 22  1  0
M  END
$$$$
CHEMBL272641
     RDKit          3D

 12 11  0  0  0  0  0  0  0  0999 V2000
    1.1571   -0.5941    0.2226 C   0  0  0  0  0  0  0  0  0  0  0  0
    0.1307    0.3448   -0.4192 C   0  0  0  0  0  0  0  0  0  0  0  0
   -1.3009   -0.1405   -0.1708 C   0  0  0  0  0  0  0  0  0  0  0  0
    0.2975    1.6580    0.0527 O   0  0  0  0  0  0  0  0  0  0  0  0
    2.1838   -0.2201    0.0236 H   0  0  0  0  0  0  0  0  0  0  0  0
    1.0644   -1.6142   -0.2073 H   0  0  0  0  0  0  0  0  0  0  0  0
    1.0033   -0.6504    1.3215 H   0  0  0  0  0  0  0  0  0  0  0  0
    0.3072    0.3497   -1.5166 H   0  0  0  0  0  0  0  0  0  0  0  0
   -2.0217    0.5559   -0.6493 H   0  0  0  0  0  0  0  0  0  0  0  0
   -1.5160   -0.1855    0.9184 H   0  0  0  0  0  0  0  0  0  0  0  0
   -1.4442   -1.1513   -0.6087 H   0  0  0  0  0  0  0  0  0  0  0  0
    0.1387    1.6476    1.0332 H   0  0  0  0  0  0  0  0  0  0  0  0
  1  2  1  0
  2  3  1  0
  2  4  1  0
  1  5  1  0
  1  6  1  0
  1  7  1  0
  2  8  1  0
  3  9  1  0
  3 10  1  0
  3 11  1  0
  4 12  1  0
M  END
$$$$
